
     RDKit          3D

 45 46  0  0  0  0  0  0  0  0999 V2000
    3.5546    2.6174    2.1822 C   0  0  0  0  0  0  0  0  0  0  0  0
    2.6815    1.5314    1.7569 N   0  0  0  0  0  0  0  0  0  0  0  0
    2.9340    0.7816    0.5605 C   0  0  0  0  0  0  0  0  0  0  0  0
    3.9792    1.0012   -0.1141 O   0  0  0  0  0  0  0  0  0  0  0  0
    1.9937   -0.3240    0.1593 C   0  0  0  0  0  0  0  0  0  0  0  0
    1.8584   -0.4786   -1.3738 C   0  0  2  0  0  0  0  0  0  0  0  0
    1.3312    0.7500   -2.0578 C   0  0  0  0  0  0  0  0  0  0  0  0
    2.1460    1.5269   -2.6266 O   0  0  0  0  0  0  0  0  0  0  0  0
   -0.0659    1.0537   -2.1072 N   0  0  0  0  0  0  0  0  0  0  0  0
   -1.0041    0.6355   -1.1068 C   0  0  0  0  0  0  0  0  0  0  0  0
   -1.8591    1.6054   -0.5633 C   0  0  0  0  0  0  0  0  0  0  0  0
   -2.8194    1.2697    0.4044 C   0  0  0  0  0  0  0  0  0  0  0  0
   -3.6812    2.2265    0.9639 O   0  0  0  0  0  0  0  0  0  0  0  0
   -3.6889    3.6068    0.6187 C   0  0  0  0  0  0  0  0  0  0  0  0
   -2.9326   -0.0569    0.8314 C   0  0  0  0  0  0  0  0  0  0  0  0
   -3.8981   -0.3626    1.8044 O   0  0  0  0  0  0  0  0  0  0  0  0
   -4.1056   -1.6579    2.3604 C   0  0  0  0  0  0  0  0  0  0  0  0
   -2.0928   -1.0388    0.2770 C   0  0  0  0  0  0  0  0  0  0  0  0
   -1.1292   -0.7126   -0.6954 C   0  0  0  0  0  0  0  0  0  0  0  0
   -0.3231   -1.8165   -1.2811 C   0  0  0  0  0  0  0  0  0  0  0  0
   -0.8518   -2.9577   -1.3536 O   0  0  0  0  0  0  0  0  0  0  0  0
    1.0382   -1.6458   -1.7416 N   0  0  0  0  0  0  0  0  0  0  0  0
    1.6546   -2.6993   -2.5661 C   0  0  0  0  0  0  0  0  0  0  0  0
    2.4842   -3.6503   -1.7028 C   0  0  0  0  0  0  0  0  0  0  0  0
    1.6776   -4.2753   -0.7679 F   0  0  0  0  0  0  0  0  0  0  0  0
    3.0729   -4.6106   -2.5070 F   0  0  0  0  0  0  0  0  0  0  0  0
    4.5850    2.2329    2.3402 H   0  0  0  0  0  0  0  0  0  0  0  0
    3.5680    3.4148    1.4079 H   0  0  0  0  0  0  0  0  0  0  0  0
    3.1821    3.0485    3.1361 H   0  0  0  0  0  0  0  0  0  0  0  0
    1.8518    1.2962    2.3474 H   0  0  0  0  0  0  0  0  0  0  0  0
    2.3824   -1.2751    0.5823 H   0  0  0  0  0  0  0  0  0  0  0  0
    1.0099   -0.1365    0.6290 H   0  0  0  0  0  0  0  0  0  0  0  0
    2.8917   -0.6422   -1.7579 H   0  0  0  0  0  0  0  0  0  0  0  0
   -0.3450    1.8526   -2.7208 H   0  0  0  0  0  0  0  0  0  0  0  0
   -1.7607    2.6288   -0.8993 H   0  0  0  0  0  0  0  0  0  0  0  0
   -3.9018    3.7289   -0.4640 H   0  0  0  0  0  0  0  0  0  0  0  0
   -2.7107    4.0686    0.8718 H   0  0  0  0  0  0  0  0  0  0  0  0
   -4.4859    4.1187    1.1963 H   0  0  0  0  0  0  0  0  0  0  0  0
   -4.4119   -2.3711    1.5657 H   0  0  0  0  0  0  0  0  0  0  0  0
   -3.1784   -2.0133    2.8588 H   0  0  0  0  0  0  0  0  0  0  0  0
   -4.9150   -1.6014    3.1162 H   0  0  0  0  0  0  0  0  0  0  0  0
   -2.1856   -2.0658    0.6018 H   0  0  0  0  0  0  0  0  0  0  0  0
    2.3066   -2.2401   -3.3397 H   0  0  0  0  0  0  0  0  0  0  0  0
    0.8802   -3.2755   -3.1174 H   0  0  0  0  0  0  0  0  0  0  0  0
    3.2831   -3.0883   -1.1754 H   0  0  0  0  0  0  0  0  0  0  0  0
  1  2  1  0
  2  3  1  0
  3  4  2  0
  3  5  1  0
  5  6  1  0
  6  7  1  0
  7  8  2  0
  7  9  1  0
  9 10  1  0
 10 11  2  0
 11 12  1  0
 12 13  1  0
 13 14  1  0
 12 15  2  0
 15 16  1  0
 16 17  1  0
 15 18  1  0
 18 19  2  0
 19 20  1  0
 20 21  2  0
 20 22  1  0
 22 23  1  0
 23 24  1  0
 24 25  1  0
 24 26  1  0
 22  6  1  0
 19 10  1  0
  1 27  1  0
  1 28  1  0
  1 29  1  0
  2 30  1  0
  5 31  1  0
  5 32  1  0
  6 33  1  6
  9 34  1  0
 11 35  1  0
 14 36  1  0
 14 37  1  0
 14 38  1  0
 17 39  1  0
 17 40  1  0
 17 41  1  0
 18 42  1  0
 23 43  1  0
 23 44  1  0
 24 45  1  0
M  END
$$$$